// Generated for: spectre
// Design cell name: SMART_Classifier
// Design view name: netlist
// Authors: Farid Kenarangi & Inna Partin-Vaisband
// Current date and time :
// 2020-12-20 03:36:41 
simulator lang=spectre
global 0 vdd! 
parameters rise=1n fall=1n period=10n Vd=1800m w1=1080m w15=1380m F1=900m F15=1500m T=47.5
// *************************
// ******* Libraries *******
// *************************
include "/opt/gpdk180_v3.3/models/spectre/gpdk.scs" section=NN
// ********************************************
// ******* Transistor level subcircuits *******
// ********************************************
// Library name: 180_tech
// Cell name: INV
// View name: schematic
subckt INV A A_bar
    NM0 (A_bar A 0 0) nmos1 w=(400n) l=180n as=440f ad=440f ps=2.8u \ 
        pd=2.8u m=(1)*(1)
    PM0 (A_bar A vdd! vdd!) pmos1 w=(800n) l=180n as=480f ad=480f ps=2.8u \ 
        pd=2.8u m=(1)*(1)
ends INV
// End of subcircuit definition.
// Cell name: nmos
// View name: schematic
subckt nmos D G S B
    NM1 (D G S B) nmos1 w=(400n) l=180n as=440f ad=440f ps=2.8u pd=2.8u m=(1)*(1)
ends nmos
// End of subcircuit definition.
// Library name: 180_tech
// Cell name: TS_gate
// View name: schematic
subckt TS_gate A EN Y
   NM0 (A EN Y 0) nmos1 w=(4u) l=180n as=2.4p ad=2.4p ps=9.2u pd=9.2u m=(1)*(1)
   PM0 (Y net7 A vdd!) pmos1 w=(8u) l=180n as=4.8p ad=4.8p ps=17.2u pd=17.2u m=(1)*(1)
   I0 (EN net7) INV
ends TS_gate
// End of subcircuit definition.
// Library name: 180_tech
// Cell name: MUX
// View name: schematic
subckt MUX A B S Y
    I1 (B S Y) TS_gate
    I0 (A net3 Y) TS_gate
    I2 (S net3) INV
ends MUX
// End of subcircuit definition.
// Library name: 180_tech
// Cell name: MUX_4to1
// View name: schematic
subckt MUX_4to1 A B C D Y s0 s1
    I2 (net9 net8 s1 Y) MUX
    I1 (C D s0 net8) MUX
    I0 (A B s0 net9) MUX
ends MUX_4to1
// End of subcircuit definition.
// Library name: 180_tech
// Cell name: MUX_8to1
// View name: schematic
subckt MUX_8to1 Y s0 s1 s2 x0 x1 x2 x3 x4 x5 x6 x7
    I0 (x4 x5 x6 x7 net1 s0 s1) MUX_4to1
    I6 (x0 x1 x2 x3 net2 s0 s1) MUX_4to1
    I2 (net2 net1 s2 Y) MUX
ends MUX_8to1
// End of subcircuit definition.
// Library name: 180_tech
// Cell name: MUX_16to1
// View name: schematic
subckt MUX_16to1 Y s\<0\> s\<1\> s\<2\> s\<3\> x\<0\> x\<1\> x\<2\> x\<3\> \ 
        x\<4\> x\<5\> x\<6\> x\<7\> x\<8\> x\<9\> x\<10\> x\<11\> x\<12\> \ 
        x\<13\> x\<14\> x\<15\>
    I1 (net22 s\<0\> s\<1\> s\<2\> x\<8\> x\<9\> x\<10\> x\<11\> x\<12\> \ 
        x\<13\> x\<14\> x\<15\>) MUX_8to1
    I0 (net23 s\<0\> s\<1\> s\<2\> x\<0\> x\<1\> x\<2\> x\<3\> x\<4\> \ 
        x\<5\> x\<6\> x\<7\>) MUX_8to1
    I2 (net23 net22 s\<3\> Y) MUX
ends MUX_16to1
// End of subcircuit definition.
// Library name: 180_tech
// Cell name: msFF
// View name: schematic
subckt msFF D Q clear clk en
    I9 (clk en clock) AND_gate
    PM8 (Q net18 vdd! vdd!) pmos1 w=(800n) l=180n as=480f ad=480f ps=2.8u \ 
        pd=2.8u m=(1)*(1)
    PM0 (net8 clock D vdd!) pmos1 w=(800n) l=180n as=480f ad=480f ps=2.8u \ 
        pd=2.8u m=(1)*(1)
    PM10 (net24 clear vdd! vdd!) pmos1 w=(800n) l=180n as=480f ad=480f \ 
        ps=2.8u pd=2.8u m=(1)*(1)
    PM3 (net12 clear vdd! vdd!) pmos1 w=(800n) l=180n as=480f ad=480f \ 
        ps=2.8u pd=2.8u m=(1)*(1)
    PM6 (net18 clkNot net12 vdd!) pmos1 w=(800n) l=180n as=480f ad=480f \ 
        ps=2.8u pd=2.8u m=(1)*(1)
    PM2 (net12 net8 vdd! vdd!) pmos1 w=(800n) l=180n as=480f ad=480f \ 
        ps=2.8u pd=2.8u m=(1)*(1)
    PM9 (net24 Q vdd! vdd!) pmos1 w=(800n) l=180n as=480f ad=480f ps=2.8u \ 
        pd=2.8u m=(1)*(1)
    PM7 (net24 clock net18 vdd!) pmos1 w=(800n) l=180n as=480f ad=480f \ 
        ps=2.8u pd=2.8u m=(1)*(1)
    PM1 (clkNot clock vdd! vdd!) pmos1 w=(800n) l=180n as=480f ad=480f \ 
        ps=2.8u pd=2.8u m=(1)*(1)
    PM4 (net11 clkNot net8 vdd!) pmos1 w=(800n) l=180n as=480f ad=480f \ 
        ps=2.8u pd=2.8u m=(1)*(1)
    PM5 (net11 net12 vdd! vdd!) pmos1 w=(800n) l=180n as=480f ad=480f \ 
        ps=2.8u pd=2.8u m=(1)*(1)
    NM10 (net29 clear 0 0) nmos1 w=(800n) l=180n as=480f ad=480f ps=2.8u \ 
        pd=2.8u m=(1)*(1)
    NM9 (net24 Q net29 0) nmos1 w=(800n) l=180n as=480f ad=480f ps=2.8u \ 
        pd=2.8u m=(1)*(1)
    NM6 (net18 clock net12 0) nmos1 w=(400n) l=180n as=440f ad=440f \ 
        ps=2.8u pd=2.8u m=(1)*(1)
    NM0 (net8 clkNot D 0) nmos1 w=(400n) l=180n as=440f ad=440f ps=2.8u \ 
        pd=2.8u m=(1)*(1)
    NM8 (Q net18 0 0) nmos1 w=(400n) l=180n as=440f ad=440f ps=2.8u \ 
        pd=2.8u m=(1)*(1)
    NM3 (net12 net8 net35 0) nmos1 w=(800n) l=180n as=480f ad=480f ps=2.8u \ 
        pd=2.8u m=(1)*(1)
    NM7 (net24 clkNot net18 0) nmos1 w=(400n) l=180n as=440f ad=440f \ 
        ps=2.8u pd=2.8u m=(1)*(1)
    NM2 (net35 clear 0 0) nmos1 w=(800n) l=180n as=480f ad=480f ps=2.8u \ 
        pd=2.8u m=(1)*(1)
    NM1 (clkNot clock 0 0) nmos1 w=(400n) l=180n as=440f ad=440f ps=2.8u \ 
        pd=2.8u m=(1)*(1)
    NM4 (net11 clock net8 0) nmos1 w=(400n) l=180n as=440f ad=440f ps=2.8u \ 
        pd=2.8u m=(1)*(1)
    NM5 (net11 net12 0 0) nmos1 w=(400n) l=180n as=440f ad=440f ps=2.8u \ 
        pd=2.8u m=(1)*(1)
ends msFF
// End of subcircuit definition.
// Library name: gpdk180
// Cell name: polyres
// View name: schematic
subckt polyres_pcell_0 MINUS PLUS
parameters sl=600n w=600n
    R0 (PLUS MINUS) gpdk180_polyres sl=sl w=w
ends polyres_pcell_0
// End of subcircuit definition.
// Library name: 180_tech
// Cell name: resVD
// View name: schematic
subckt resVD w\<1\> w\<2\> w\<3\> w\<4\> w\<5\> w\<6\> w\<7\> \ 
        w\<8\> w\<9\> w\<10\> w\<11\> w\<12\> w\<13\> w\<14\> w\<15\>
    R37 (w\<4\> w\<3\>) polyres_pcell_0  sl=600n w=600n
    R35 (w\<3\> w\<2\>) polyres_pcell_0  sl=600n w=600n
    R36 (w\<2\> w\<1\>) polyres_pcell_0  sl=600n w=600n
    R32 (w\<5\> w\<6\>) polyres_pcell_0  sl=600n w=600n
    R33 (w\<6\> w\<7\>) polyres_pcell_0  sl=600n w=600n
    R39 (w\<7\> w\<8\>) polyres_pcell_0  sl=600n w=600n
    R34 (w\<4\> w\<5\>) polyres_pcell_0  sl=600n w=600n
    R7 (w\<9\> w\<8\>) polyres_pcell_0   sl=600n w=600n
    R6 (w\<12\> w\<11\>) polyres_pcell_0 sl=600n w=600n
    R5 (w\<10\> w\<9\>) polyres_pcell_0  sl=600n w=600n
    R4 (w\<11\> w\<10\>) polyres_pcell_0 sl=600n w=600n
    R2 (w\<12\> w\<13\>) polyres_pcell_0 sl=600n w=600n
    R1 (w\<14\> w\<15\>) polyres_pcell_0 sl=600n w=600n
    R3 (w\<13\> w\<14\>) polyres_pcell_0 sl=600n w=600n
ends resVD
// End of subcircuit definition.
// Library name: 180_tech
// Cell name: AND_gate
// View name: schematic
subckt AND_gate A B Y
    NM6 (Y net3 0 0) nmos1 w=(400n) l=180n as=440f ad=440f ps=2.8u pd=2.8u \ 
        m=(1)*(1)
    NM5 (net9 B 0 0) nmos1 w=(400n) l=180n as=440f ad=440f ps=2.8u pd=2.8u \ 
        m=(1)*(1)
    NM4 (net3 A net9 0) nmos1 w=(400n) l=180n as=440f ad=440f ps=2.8u \ 
        pd=2.8u m=(1)*(1)
    PM6 (Y net3 vdd! vdd!) pmos1 w=(800n) l=180n as=480f ad=480f ps=2.8u \ 
        pd=2.8u m=(1)*(1)
    PM5 (net3 A vdd! vdd!) pmos1 w=(400n) l=180n as=440f ad=440f ps=2.8u \ 
        pd=2.8u m=(1)*(1)
    PM4 (net3 B vdd! vdd!) pmos1 w=(400n) l=180n as=440f ad=440f ps=2.8u \ 
        pd=2.8u m=(1)*(1)
ends AND_gate
// End of subcircuit definition.
// Library name: 180_tech
// Cell name: senAmp
// View name: schematic
subckt senAmp D1 D2 EN S1 S2
    NM7 (notEN EN 0 0) nmos1 w=(800n) l=180n as=480f ad=480f ps=2.8u \ 
        pd=2.8u m=(1)*(1)
    NM6 (S2 EN net14 0) nmos1 w=(800n) l=180n as=480f ad=480f ps=2.8u \ 
        pd=2.8u m=(1)*(1)
    NM5 (net22 EN S1 0) nmos1 w=(800n) l=180n as=480f ad=480f ps=2.8u \ 
        pd=2.8u m=(1)*(1)
    NM4 (net16 net14 net5 0) nmos1 w=(800n) l=180n as=480f ad=480f ps=2.8u \  
        pd=2.8u m=(1)*(1)
    NM3 (D1 D2 net20 0) nmos1 w=(800n) l=180n as=480f ad=480f ps=2.8u \ 
        pd=2.8u m=(1)*(1)
    NM2 (D2 D1 net16 0) nmos1 w=(800n) l=180n as=480f ad=480f ps=2.8u \ 
        pd=2.8u m=(1)*(1)
    NM1 (net20 net22 net5 0) nmos1 w=(800n) l=180n as=480f ad=480f ps=2.8u \ 
        pd=2.8u m=(1)*(1)
    NM0 (net5 EN 0 0) nmos1 w=(400n) l=180n as=440f ad=440f ps=2.8u \ 
        pd=2.8u m=(1)*(1)
    PM1 (notEN EN vdd! vdd!) pmos1 w=(1.6u) l=180n as=960f ad=960f ps=4.4u \ 
        pd=4.4u m=(1)*(1)
    PM6 (S2 notEN net14 senseVdd!) pmos1 w=(1.6u) l=180n as=960f ad=960f \ 
        ps=4.4u pd=4.4u m=(1)*(1)
    PM0 (net22 notEN S1 senseVdd!) pmos1 w=(1.6u) l=180n as=960f ad=960f \ 
        ps=4.4u pd=4.4u m=(1)*(1)
    PM5 (D2 EN vdd! vdd!) pmos1 w=(1.6u) l=180n as=960f ad=960f ps=4.4u \ 
        pd=4.4u m=(1)*(1)
    PM4 (D1 D2 vdd! vdd!) pmos1 w=(1.6u) l=180n as=960f ad=960f ps=4.4u \ 
        pd=4.4u m=(1)*(1)
    PM3 (D2 D1 vdd! vdd!) pmos1 w=(1.6u) l=180n as=960f ad=960f ps=4.4u \ 
        pd=4.4u m=(1)*(1)
    PM2 (D1 EN vdd! vdd!) pmos1 w=(1.6u) l=180n as=960f ad=960f ps=4.4u \ 
        pd=4.4u m=(1)*(1)
ends senAmp
// End of subcircuit definition.
// *****************************************
// ******* Power and Control Signals *******
// *****************************************
VDD (vdd! 0) vsource dc=Vd type=dc
VPRE (PRE 0) vsource type=pulse val0=Vd val1=0 period=period rise=rise fall=fall width=5n delay=1n
Vclk (clk 0) vsource type=pulse val0=0 val1=Vd period=period rise=rise fall=fall width=1n delay=2n
Vclear (clear 0) vsource type=pulse val0=Vd val1=0 period=1 rise=rise fall=fall width=1n
// *************************************
// ******* Sensing Line Switches *******
// *************************************
PMp0 (LP0_1, PRE, vdd!, vdd!) pmos1 w=(15u) l=180n as=12p ad=12p ps=41.2u pd=41.2u m=(1)*(1)
PMn0 (LN0_1, PRE, vdd!, vdd!) pmos1 w=(15u) l=180n as=12p ad=12p ps=41.2u pd=41.2u m=(1)*(1)
PMp1 (LP0_2, PRE, vdd!, vdd!) pmos1 w=(15u) l=180n as=12p ad=12p ps=41.2u pd=41.2u m=(1)*(1)
PMn1 (LN0_2, PRE, vdd!, vdd!) pmos1 w=(15u) l=180n as=12p ad=12p ps=41.2u pd=41.2u m=(1)*(1)
PMp2 (LP0_3, PRE, vdd!, vdd!) pmos1 w=(15u) l=180n as=12p ad=12p ps=41.2u pd=41.2u m=(1)*(1)
PMn2 (LN0_3, PRE, vdd!, vdd!) pmos1 w=(15u) l=180n as=12p ad=12p ps=41.2u pd=41.2u m=(1)*(1)
PMp3 (LP0_4, PRE, vdd!, vdd!) pmos1 w=(15u) l=180n as=12p ad=12p ps=41.2u pd=41.2u m=(1)*(1)
PMn3 (LN0_4, PRE, vdd!, vdd!) pmos1 w=(15u) l=180n as=12p ad=12p ps=41.2u pd=41.2u m=(1)*(1)
PMp4 (LP0_5, PRE, vdd!, vdd!) pmos1 w=(15u) l=180n as=12p ad=12p ps=41.2u pd=41.2u m=(1)*(1)
PMn4 (LN0_5, PRE, vdd!, vdd!) pmos1 w=(15u) l=180n as=12p ad=12p ps=41.2u pd=41.2u m=(1)*(1)
PMp5 (LP0_6, PRE, vdd!, vdd!) pmos1 w=(15u) l=180n as=12p ad=12p ps=41.2u pd=41.2u m=(1)*(1)
PMn5 (LN0_6, PRE, vdd!, vdd!) pmos1 w=(15u) l=180n as=12p ad=12p ps=41.2u pd=41.2u m=(1)*(1)
PMp6 (LP0_7, PRE, vdd!, vdd!) pmos1 w=(15u) l=180n as=12p ad=12p ps=41.2u pd=41.2u m=(1)*(1)
PMn6 (LN0_7, PRE, vdd!, vdd!) pmos1 w=(15u) l=180n as=12p ad=12p ps=41.2u pd=41.2u m=(1)*(1)
PMp7 (LP0_8, PRE, vdd!, vdd!) pmos1 w=(15u) l=180n as=12p ad=12p ps=41.2u pd=41.2u m=(1)*(1)
PMn7 (LN0_8, PRE, vdd!, vdd!) pmos1 w=(15u) l=180n as=12p ad=12p ps=41.2u pd=41.2u m=(1)*(1)
PMp8 (LP0_9, PRE, vdd!, vdd!) pmos1 w=(15u) l=180n as=12p ad=12p ps=41.2u pd=41.2u m=(1)*(1)
PMn8 (LN0_9, PRE, vdd!, vdd!) pmos1 w=(15u) l=180n as=12p ad=12p ps=41.2u pd=41.2u m=(1)*(1)
PMp9 (LP1_2, PRE, vdd!, vdd!) pmos1 w=(15u) l=180n as=12p ad=12p ps=41.2u pd=41.2u m=(1)*(1)
PMn9 (LN1_2, PRE, vdd!, vdd!) pmos1 w=(15u) l=180n as=12p ad=12p ps=41.2u pd=41.2u m=(1)*(1)
PMp10 (LP1_3, PRE, vdd!, vdd!) pmos1 w=(15u) l=180n as=12p ad=12p ps=41.2u pd=41.2u m=(1)*(1)
PMn10 (LN1_3, PRE, vdd!, vdd!) pmos1 w=(15u) l=180n as=12p ad=12p ps=41.2u pd=41.2u m=(1)*(1)
PMp11 (LP1_4, PRE, vdd!, vdd!) pmos1 w=(15u) l=180n as=12p ad=12p ps=41.2u pd=41.2u m=(1)*(1)
PMn11 (LN1_4, PRE, vdd!, vdd!) pmos1 w=(15u) l=180n as=12p ad=12p ps=41.2u pd=41.2u m=(1)*(1)
PMp12 (LP1_5, PRE, vdd!, vdd!) pmos1 w=(15u) l=180n as=12p ad=12p ps=41.2u pd=41.2u m=(1)*(1)
PMn12 (LN1_5, PRE, vdd!, vdd!) pmos1 w=(15u) l=180n as=12p ad=12p ps=41.2u pd=41.2u m=(1)*(1)
PMp13 (LP1_6, PRE, vdd!, vdd!) pmos1 w=(15u) l=180n as=12p ad=12p ps=41.2u pd=41.2u m=(1)*(1)
PMn13 (LN1_6, PRE, vdd!, vdd!) pmos1 w=(15u) l=180n as=12p ad=12p ps=41.2u pd=41.2u m=(1)*(1)
PMp14 (LP1_7, PRE, vdd!, vdd!) pmos1 w=(15u) l=180n as=12p ad=12p ps=41.2u pd=41.2u m=(1)*(1)
PMn14 (LN1_7, PRE, vdd!, vdd!) pmos1 w=(15u) l=180n as=12p ad=12p ps=41.2u pd=41.2u m=(1)*(1)
PMp15 (LP1_8, PRE, vdd!, vdd!) pmos1 w=(15u) l=180n as=12p ad=12p ps=41.2u pd=41.2u m=(1)*(1)
PMn15 (LN1_8, PRE, vdd!, vdd!) pmos1 w=(15u) l=180n as=12p ad=12p ps=41.2u pd=41.2u m=(1)*(1)
PMp16 (LP1_9, PRE, vdd!, vdd!) pmos1 w=(15u) l=180n as=12p ad=12p ps=41.2u pd=41.2u m=(1)*(1)
PMn16 (LN1_9, PRE, vdd!, vdd!) pmos1 w=(15u) l=180n as=12p ad=12p ps=41.2u pd=41.2u m=(1)*(1)
PMp17 (LP2_3, PRE, vdd!, vdd!) pmos1 w=(15u) l=180n as=12p ad=12p ps=41.2u pd=41.2u m=(1)*(1)
PMn17 (LN2_3, PRE, vdd!, vdd!) pmos1 w=(15u) l=180n as=12p ad=12p ps=41.2u pd=41.2u m=(1)*(1)
PMp18 (LP2_4, PRE, vdd!, vdd!) pmos1 w=(15u) l=180n as=12p ad=12p ps=41.2u pd=41.2u m=(1)*(1)
PMn18 (LN2_4, PRE, vdd!, vdd!) pmos1 w=(15u) l=180n as=12p ad=12p ps=41.2u pd=41.2u m=(1)*(1)
PMp19 (LP2_5, PRE, vdd!, vdd!) pmos1 w=(15u) l=180n as=12p ad=12p ps=41.2u pd=41.2u m=(1)*(1)
PMn19 (LN2_5, PRE, vdd!, vdd!) pmos1 w=(15u) l=180n as=12p ad=12p ps=41.2u pd=41.2u m=(1)*(1)
PMp20 (LP2_6, PRE, vdd!, vdd!) pmos1 w=(15u) l=180n as=12p ad=12p ps=41.2u pd=41.2u m=(1)*(1)
PMn20 (LN2_6, PRE, vdd!, vdd!) pmos1 w=(15u) l=180n as=12p ad=12p ps=41.2u pd=41.2u m=(1)*(1)
PMp21 (LP2_7, PRE, vdd!, vdd!) pmos1 w=(15u) l=180n as=12p ad=12p ps=41.2u pd=41.2u m=(1)*(1)
PMn21 (LN2_7, PRE, vdd!, vdd!) pmos1 w=(15u) l=180n as=12p ad=12p ps=41.2u pd=41.2u m=(1)*(1)
PMp22 (LP2_8, PRE, vdd!, vdd!) pmos1 w=(15u) l=180n as=12p ad=12p ps=41.2u pd=41.2u m=(1)*(1)
PMn22 (LN2_8, PRE, vdd!, vdd!) pmos1 w=(15u) l=180n as=12p ad=12p ps=41.2u pd=41.2u m=(1)*(1)
PMp23 (LP2_9, PRE, vdd!, vdd!) pmos1 w=(15u) l=180n as=12p ad=12p ps=41.2u pd=41.2u m=(1)*(1)
PMn23 (LN2_9, PRE, vdd!, vdd!) pmos1 w=(15u) l=180n as=12p ad=12p ps=41.2u pd=41.2u m=(1)*(1)
PMp24 (LP3_4, PRE, vdd!, vdd!) pmos1 w=(15u) l=180n as=12p ad=12p ps=41.2u pd=41.2u m=(1)*(1)
PMn24 (LN3_4, PRE, vdd!, vdd!) pmos1 w=(15u) l=180n as=12p ad=12p ps=41.2u pd=41.2u m=(1)*(1)
PMp25 (LP3_5, PRE, vdd!, vdd!) pmos1 w=(15u) l=180n as=12p ad=12p ps=41.2u pd=41.2u m=(1)*(1)
PMn25 (LN3_5, PRE, vdd!, vdd!) pmos1 w=(15u) l=180n as=12p ad=12p ps=41.2u pd=41.2u m=(1)*(1)
PMp26 (LP3_6, PRE, vdd!, vdd!) pmos1 w=(15u) l=180n as=12p ad=12p ps=41.2u pd=41.2u m=(1)*(1)
PMn26 (LN3_6, PRE, vdd!, vdd!) pmos1 w=(15u) l=180n as=12p ad=12p ps=41.2u pd=41.2u m=(1)*(1)
PMp27 (LP3_7, PRE, vdd!, vdd!) pmos1 w=(15u) l=180n as=12p ad=12p ps=41.2u pd=41.2u m=(1)*(1)
PMn27 (LN3_7, PRE, vdd!, vdd!) pmos1 w=(15u) l=180n as=12p ad=12p ps=41.2u pd=41.2u m=(1)*(1)
PMp28 (LP3_8, PRE, vdd!, vdd!) pmos1 w=(15u) l=180n as=12p ad=12p ps=41.2u pd=41.2u m=(1)*(1)
PMn28 (LN3_8, PRE, vdd!, vdd!) pmos1 w=(15u) l=180n as=12p ad=12p ps=41.2u pd=41.2u m=(1)*(1)
PMp29 (LP3_9, PRE, vdd!, vdd!) pmos1 w=(15u) l=180n as=12p ad=12p ps=41.2u pd=41.2u m=(1)*(1)
PMn29 (LN3_9, PRE, vdd!, vdd!) pmos1 w=(15u) l=180n as=12p ad=12p ps=41.2u pd=41.2u m=(1)*(1)
PMp30 (LP4_5, PRE, vdd!, vdd!) pmos1 w=(15u) l=180n as=12p ad=12p ps=41.2u pd=41.2u m=(1)*(1)
PMn30 (LN4_5, PRE, vdd!, vdd!) pmos1 w=(15u) l=180n as=12p ad=12p ps=41.2u pd=41.2u m=(1)*(1)
PMp31 (LP4_6, PRE, vdd!, vdd!) pmos1 w=(15u) l=180n as=12p ad=12p ps=41.2u pd=41.2u m=(1)*(1)
PMn31 (LN4_6, PRE, vdd!, vdd!) pmos1 w=(15u) l=180n as=12p ad=12p ps=41.2u pd=41.2u m=(1)*(1)
PMp32 (LP4_7, PRE, vdd!, vdd!) pmos1 w=(15u) l=180n as=12p ad=12p ps=41.2u pd=41.2u m=(1)*(1)
PMn32 (LN4_7, PRE, vdd!, vdd!) pmos1 w=(15u) l=180n as=12p ad=12p ps=41.2u pd=41.2u m=(1)*(1)
PMp33 (LP4_8, PRE, vdd!, vdd!) pmos1 w=(15u) l=180n as=12p ad=12p ps=41.2u pd=41.2u m=(1)*(1)
PMn33 (LN4_8, PRE, vdd!, vdd!) pmos1 w=(15u) l=180n as=12p ad=12p ps=41.2u pd=41.2u m=(1)*(1)
PMp34 (LP4_9, PRE, vdd!, vdd!) pmos1 w=(15u) l=180n as=12p ad=12p ps=41.2u pd=41.2u m=(1)*(1)
PMn34 (LN4_9, PRE, vdd!, vdd!) pmos1 w=(15u) l=180n as=12p ad=12p ps=41.2u pd=41.2u m=(1)*(1)
PMp35 (LP5_6, PRE, vdd!, vdd!) pmos1 w=(15u) l=180n as=12p ad=12p ps=41.2u pd=41.2u m=(1)*(1)
PMn35 (LN5_6, PRE, vdd!, vdd!) pmos1 w=(15u) l=180n as=12p ad=12p ps=41.2u pd=41.2u m=(1)*(1)
PMp36 (LP5_7, PRE, vdd!, vdd!) pmos1 w=(15u) l=180n as=12p ad=12p ps=41.2u pd=41.2u m=(1)*(1)
PMn36 (LN5_7, PRE, vdd!, vdd!) pmos1 w=(15u) l=180n as=12p ad=12p ps=41.2u pd=41.2u m=(1)*(1)
PMp37 (LP5_8, PRE, vdd!, vdd!) pmos1 w=(15u) l=180n as=12p ad=12p ps=41.2u pd=41.2u m=(1)*(1)
PMn37 (LN5_8, PRE, vdd!, vdd!) pmos1 w=(15u) l=180n as=12p ad=12p ps=41.2u pd=41.2u m=(1)*(1)
PMp38 (LP5_9, PRE, vdd!, vdd!) pmos1 w=(15u) l=180n as=12p ad=12p ps=41.2u pd=41.2u m=(1)*(1)
PMn38 (LN5_9, PRE, vdd!, vdd!) pmos1 w=(15u) l=180n as=12p ad=12p ps=41.2u pd=41.2u m=(1)*(1)
PMp39 (LP6_7, PRE, vdd!, vdd!) pmos1 w=(15u) l=180n as=12p ad=12p ps=41.2u pd=41.2u m=(1)*(1)
PMn39 (LN6_7, PRE, vdd!, vdd!) pmos1 w=(15u) l=180n as=12p ad=12p ps=41.2u pd=41.2u m=(1)*(1)
PMp40 (LP6_8, PRE, vdd!, vdd!) pmos1 w=(15u) l=180n as=12p ad=12p ps=41.2u pd=41.2u m=(1)*(1)
PMn40 (LN6_8, PRE, vdd!, vdd!) pmos1 w=(15u) l=180n as=12p ad=12p ps=41.2u pd=41.2u m=(1)*(1)
PMp41 (LP6_9, PRE, vdd!, vdd!) pmos1 w=(15u) l=180n as=12p ad=12p ps=41.2u pd=41.2u m=(1)*(1)
PMn41 (LN6_9, PRE, vdd!, vdd!) pmos1 w=(15u) l=180n as=12p ad=12p ps=41.2u pd=41.2u m=(1)*(1)
PMp42 (LP7_8, PRE, vdd!, vdd!) pmos1 w=(15u) l=180n as=12p ad=12p ps=41.2u pd=41.2u m=(1)*(1)
PMn42 (LN7_8, PRE, vdd!, vdd!) pmos1 w=(15u) l=180n as=12p ad=12p ps=41.2u pd=41.2u m=(1)*(1)
PMp43 (LP7_9, PRE, vdd!, vdd!) pmos1 w=(15u) l=180n as=12p ad=12p ps=41.2u pd=41.2u m=(1)*(1)
PMn43 (LN7_9, PRE, vdd!, vdd!) pmos1 w=(15u) l=180n as=12p ad=12p ps=41.2u pd=41.2u m=(1)*(1)
PMp44 (LP8_9, PRE, vdd!, vdd!) pmos1 w=(15u) l=180n as=12p ad=12p ps=41.2u pd=41.2u m=(1)*(1)
PMn44 (LN8_9, PRE, vdd!, vdd!) pmos1 w=(15u) l=180n as=12p ad=12p ps=41.2u pd=41.2u m=(1)*(1)
// ****************************************
// ******* Sensing Line Capacitances ******
// ****************************************
C0p0 (LP0_1 0) mimcap area=(11.7u)*(4u) perim=2*(11.7u)+2*(4u) m=1
C0n0 (LN0_1 0) mimcap area=(11.7u)*(4u) perim=2*(11.7u)+2*(4u) m=1
C1p0 (LP0_1 0) mimcap area=(11.7u)*(4u) perim=2*(11.7u)+2*(4u) m=1
C1n0 (LN0_1 0) mimcap area=(11.7u)*(4u) perim=2*(11.7u)+2*(4u) m=1
C2p0 (LP0_1 0) mimcap area=(11.7u)*(4u) perim=2*(11.7u)+2*(4u) m=1
C2n0 (LN0_1 0) mimcap area=(11.7u)*(4u) perim=2*(11.7u)+2*(4u) m=1
C0p1 (LP0_2 0) mimcap area=(11.7u)*(4u) perim=2*(11.7u)+2*(4u) m=1
C0n1 (LN0_2 0) mimcap area=(11.7u)*(4u) perim=2*(11.7u)+2*(4u) m=1
C1p1 (LP0_2 0) mimcap area=(11.7u)*(4u) perim=2*(11.7u)+2*(4u) m=1
C1n1 (LN0_2 0) mimcap area=(11.7u)*(4u) perim=2*(11.7u)+2*(4u) m=1
C2p1 (LP0_2 0) mimcap area=(11.7u)*(4u) perim=2*(11.7u)+2*(4u) m=1
C2n1 (LN0_2 0) mimcap area=(11.7u)*(4u) perim=2*(11.7u)+2*(4u) m=1
C0p2 (LP0_3 0) mimcap area=(11.7u)*(4u) perim=2*(11.7u)+2*(4u) m=1
C0n2 (LN0_3 0) mimcap area=(11.7u)*(4u) perim=2*(11.7u)+2*(4u) m=1
C1p2 (LP0_3 0) mimcap area=(11.7u)*(4u) perim=2*(11.7u)+2*(4u) m=1
C1n2 (LN0_3 0) mimcap area=(11.7u)*(4u) perim=2*(11.7u)+2*(4u) m=1
C2p2 (LP0_3 0) mimcap area=(11.7u)*(4u) perim=2*(11.7u)+2*(4u) m=1
C2n2 (LN0_3 0) mimcap area=(11.7u)*(4u) perim=2*(11.7u)+2*(4u) m=1
C0p3 (LP0_4 0) mimcap area=(11.7u)*(4u) perim=2*(11.7u)+2*(4u) m=1
C0n3 (LN0_4 0) mimcap area=(11.7u)*(4u) perim=2*(11.7u)+2*(4u) m=1
C1p3 (LP0_4 0) mimcap area=(11.7u)*(4u) perim=2*(11.7u)+2*(4u) m=1
C1n3 (LN0_4 0) mimcap area=(11.7u)*(4u) perim=2*(11.7u)+2*(4u) m=1
C2p3 (LP0_4 0) mimcap area=(11.7u)*(4u) perim=2*(11.7u)+2*(4u) m=1
C2n3 (LN0_4 0) mimcap area=(11.7u)*(4u) perim=2*(11.7u)+2*(4u) m=1
C0p4 (LP0_5 0) mimcap area=(11.7u)*(4u) perim=2*(11.7u)+2*(4u) m=1
C0n4 (LN0_5 0) mimcap area=(11.7u)*(4u) perim=2*(11.7u)+2*(4u) m=1
C1p4 (LP0_5 0) mimcap area=(11.7u)*(4u) perim=2*(11.7u)+2*(4u) m=1
C1n4 (LN0_5 0) mimcap area=(11.7u)*(4u) perim=2*(11.7u)+2*(4u) m=1
C2p4 (LP0_5 0) mimcap area=(11.7u)*(4u) perim=2*(11.7u)+2*(4u) m=1
C2n4 (LN0_5 0) mimcap area=(11.7u)*(4u) perim=2*(11.7u)+2*(4u) m=1
C0p5 (LP0_6 0) mimcap area=(11.7u)*(4u) perim=2*(11.7u)+2*(4u) m=1
C0n5 (LN0_6 0) mimcap area=(11.7u)*(4u) perim=2*(11.7u)+2*(4u) m=1
C1p5 (LP0_6 0) mimcap area=(11.7u)*(4u) perim=2*(11.7u)+2*(4u) m=1
C1n5 (LN0_6 0) mimcap area=(11.7u)*(4u) perim=2*(11.7u)+2*(4u) m=1
C2p5 (LP0_6 0) mimcap area=(11.7u)*(4u) perim=2*(11.7u)+2*(4u) m=1
C2n5 (LN0_6 0) mimcap area=(11.7u)*(4u) perim=2*(11.7u)+2*(4u) m=1
C0p6 (LP0_7 0) mimcap area=(11.7u)*(4u) perim=2*(11.7u)+2*(4u) m=1
C0n6 (LN0_7 0) mimcap area=(11.7u)*(4u) perim=2*(11.7u)+2*(4u) m=1
C1p6 (LP0_7 0) mimcap area=(11.7u)*(4u) perim=2*(11.7u)+2*(4u) m=1
C1n6 (LN0_7 0) mimcap area=(11.7u)*(4u) perim=2*(11.7u)+2*(4u) m=1
C2p6 (LP0_7 0) mimcap area=(11.7u)*(4u) perim=2*(11.7u)+2*(4u) m=1
C2n6 (LN0_7 0) mimcap area=(11.7u)*(4u) perim=2*(11.7u)+2*(4u) m=1
C0p7 (LP0_8 0) mimcap area=(11.7u)*(4u) perim=2*(11.7u)+2*(4u) m=1
C0n7 (LN0_8 0) mimcap area=(11.7u)*(4u) perim=2*(11.7u)+2*(4u) m=1
C1p7 (LP0_8 0) mimcap area=(11.7u)*(4u) perim=2*(11.7u)+2*(4u) m=1
C1n7 (LN0_8 0) mimcap area=(11.7u)*(4u) perim=2*(11.7u)+2*(4u) m=1
C2p7 (LP0_8 0) mimcap area=(11.7u)*(4u) perim=2*(11.7u)+2*(4u) m=1
C2n7 (LN0_8 0) mimcap area=(11.7u)*(4u) perim=2*(11.7u)+2*(4u) m=1
C0p8 (LP0_9 0) mimcap area=(11.7u)*(4u) perim=2*(11.7u)+2*(4u) m=1
C0n8 (LN0_9 0) mimcap area=(11.7u)*(4u) perim=2*(11.7u)+2*(4u) m=1
C1p8 (LP0_9 0) mimcap area=(11.7u)*(4u) perim=2*(11.7u)+2*(4u) m=1
C1n8 (LN0_9 0) mimcap area=(11.7u)*(4u) perim=2*(11.7u)+2*(4u) m=1
C2p8 (LP0_9 0) mimcap area=(11.7u)*(4u) perim=2*(11.7u)+2*(4u) m=1
C2n8 (LN0_9 0) mimcap area=(11.7u)*(4u) perim=2*(11.7u)+2*(4u) m=1
C0p9 (LP1_2 0) mimcap area=(11.7u)*(4u) perim=2*(11.7u)+2*(4u) m=1
C0n9 (LN1_2 0) mimcap area=(11.7u)*(4u) perim=2*(11.7u)+2*(4u) m=1
C1p9 (LP1_2 0) mimcap area=(11.7u)*(4u) perim=2*(11.7u)+2*(4u) m=1
C1n9 (LN1_2 0) mimcap area=(11.7u)*(4u) perim=2*(11.7u)+2*(4u) m=1
C2p9 (LP1_2 0) mimcap area=(11.7u)*(4u) perim=2*(11.7u)+2*(4u) m=1
C2n9 (LN1_2 0) mimcap area=(11.7u)*(4u) perim=2*(11.7u)+2*(4u) m=1
C0p10 (LP1_3 0) mimcap area=(11.7u)*(4u) perim=2*(11.7u)+2*(4u) m=1
C0n10 (LN1_3 0) mimcap area=(11.7u)*(4u) perim=2*(11.7u)+2*(4u) m=1
C1p10 (LP1_3 0) mimcap area=(11.7u)*(4u) perim=2*(11.7u)+2*(4u) m=1
C1n10 (LN1_3 0) mimcap area=(11.7u)*(4u) perim=2*(11.7u)+2*(4u) m=1
C2p10 (LP1_3 0) mimcap area=(11.7u)*(4u) perim=2*(11.7u)+2*(4u) m=1
C2n10 (LN1_3 0) mimcap area=(11.7u)*(4u) perim=2*(11.7u)+2*(4u) m=1
C0p11 (LP1_4 0) mimcap area=(11.7u)*(4u) perim=2*(11.7u)+2*(4u) m=1
C0n11 (LN1_4 0) mimcap area=(11.7u)*(4u) perim=2*(11.7u)+2*(4u) m=1
C1p11 (LP1_4 0) mimcap area=(11.7u)*(4u) perim=2*(11.7u)+2*(4u) m=1
C1n11 (LN1_4 0) mimcap area=(11.7u)*(4u) perim=2*(11.7u)+2*(4u) m=1
C2p11 (LP1_4 0) mimcap area=(11.7u)*(4u) perim=2*(11.7u)+2*(4u) m=1
C2n11 (LN1_4 0) mimcap area=(11.7u)*(4u) perim=2*(11.7u)+2*(4u) m=1
C0p12 (LP1_5 0) mimcap area=(11.7u)*(4u) perim=2*(11.7u)+2*(4u) m=1
C0n12 (LN1_5 0) mimcap area=(11.7u)*(4u) perim=2*(11.7u)+2*(4u) m=1
C1p12 (LP1_5 0) mimcap area=(11.7u)*(4u) perim=2*(11.7u)+2*(4u) m=1
C1n12 (LN1_5 0) mimcap area=(11.7u)*(4u) perim=2*(11.7u)+2*(4u) m=1
C2p12 (LP1_5 0) mimcap area=(11.7u)*(4u) perim=2*(11.7u)+2*(4u) m=1
C2n12 (LN1_5 0) mimcap area=(11.7u)*(4u) perim=2*(11.7u)+2*(4u) m=1
C0p13 (LP1_6 0) mimcap area=(11.7u)*(4u) perim=2*(11.7u)+2*(4u) m=1
C0n13 (LN1_6 0) mimcap area=(11.7u)*(4u) perim=2*(11.7u)+2*(4u) m=1
C1p13 (LP1_6 0) mimcap area=(11.7u)*(4u) perim=2*(11.7u)+2*(4u) m=1
C1n13 (LN1_6 0) mimcap area=(11.7u)*(4u) perim=2*(11.7u)+2*(4u) m=1
C2p13 (LP1_6 0) mimcap area=(11.7u)*(4u) perim=2*(11.7u)+2*(4u) m=1
C2n13 (LN1_6 0) mimcap area=(11.7u)*(4u) perim=2*(11.7u)+2*(4u) m=1
C0p14 (LP1_7 0) mimcap area=(11.7u)*(4u) perim=2*(11.7u)+2*(4u) m=1
C0n14 (LN1_7 0) mimcap area=(11.7u)*(4u) perim=2*(11.7u)+2*(4u) m=1
C1p14 (LP1_7 0) mimcap area=(11.7u)*(4u) perim=2*(11.7u)+2*(4u) m=1
C1n14 (LN1_7 0) mimcap area=(11.7u)*(4u) perim=2*(11.7u)+2*(4u) m=1
C2p14 (LP1_7 0) mimcap area=(11.7u)*(4u) perim=2*(11.7u)+2*(4u) m=1
C2n14 (LN1_7 0) mimcap area=(11.7u)*(4u) perim=2*(11.7u)+2*(4u) m=1
C0p15 (LP1_8 0) mimcap area=(11.7u)*(4u) perim=2*(11.7u)+2*(4u) m=1
C0n15 (LN1_8 0) mimcap area=(11.7u)*(4u) perim=2*(11.7u)+2*(4u) m=1
C1p15 (LP1_8 0) mimcap area=(11.7u)*(4u) perim=2*(11.7u)+2*(4u) m=1
C1n15 (LN1_8 0) mimcap area=(11.7u)*(4u) perim=2*(11.7u)+2*(4u) m=1
C2p15 (LP1_8 0) mimcap area=(11.7u)*(4u) perim=2*(11.7u)+2*(4u) m=1
C2n15 (LN1_8 0) mimcap area=(11.7u)*(4u) perim=2*(11.7u)+2*(4u) m=1
C0p16 (LP1_9 0) mimcap area=(11.7u)*(4u) perim=2*(11.7u)+2*(4u) m=1
C0n16 (LN1_9 0) mimcap area=(11.7u)*(4u) perim=2*(11.7u)+2*(4u) m=1
C1p16 (LP1_9 0) mimcap area=(11.7u)*(4u) perim=2*(11.7u)+2*(4u) m=1
C1n16 (LN1_9 0) mimcap area=(11.7u)*(4u) perim=2*(11.7u)+2*(4u) m=1
C2p16 (LP1_9 0) mimcap area=(11.7u)*(4u) perim=2*(11.7u)+2*(4u) m=1
C2n16 (LN1_9 0) mimcap area=(11.7u)*(4u) perim=2*(11.7u)+2*(4u) m=1
C0p17 (LP2_3 0) mimcap area=(11.7u)*(4u) perim=2*(11.7u)+2*(4u) m=1
C0n17 (LN2_3 0) mimcap area=(11.7u)*(4u) perim=2*(11.7u)+2*(4u) m=1
C1p17 (LP2_3 0) mimcap area=(11.7u)*(4u) perim=2*(11.7u)+2*(4u) m=1
C1n17 (LN2_3 0) mimcap area=(11.7u)*(4u) perim=2*(11.7u)+2*(4u) m=1
C2p17 (LP2_3 0) mimcap area=(11.7u)*(4u) perim=2*(11.7u)+2*(4u) m=1
C2n17 (LN2_3 0) mimcap area=(11.7u)*(4u) perim=2*(11.7u)+2*(4u) m=1
C0p18 (LP2_4 0) mimcap area=(11.7u)*(4u) perim=2*(11.7u)+2*(4u) m=1
C0n18 (LN2_4 0) mimcap area=(11.7u)*(4u) perim=2*(11.7u)+2*(4u) m=1
C1p18 (LP2_4 0) mimcap area=(11.7u)*(4u) perim=2*(11.7u)+2*(4u) m=1
C1n18 (LN2_4 0) mimcap area=(11.7u)*(4u) perim=2*(11.7u)+2*(4u) m=1
C2p18 (LP2_4 0) mimcap area=(11.7u)*(4u) perim=2*(11.7u)+2*(4u) m=1
C2n18 (LN2_4 0) mimcap area=(11.7u)*(4u) perim=2*(11.7u)+2*(4u) m=1
C0p19 (LP2_5 0) mimcap area=(11.7u)*(4u) perim=2*(11.7u)+2*(4u) m=1
C0n19 (LN2_5 0) mimcap area=(11.7u)*(4u) perim=2*(11.7u)+2*(4u) m=1
C1p19 (LP2_5 0) mimcap area=(11.7u)*(4u) perim=2*(11.7u)+2*(4u) m=1
C1n19 (LN2_5 0) mimcap area=(11.7u)*(4u) perim=2*(11.7u)+2*(4u) m=1
C2p19 (LP2_5 0) mimcap area=(11.7u)*(4u) perim=2*(11.7u)+2*(4u) m=1
C2n19 (LN2_5 0) mimcap area=(11.7u)*(4u) perim=2*(11.7u)+2*(4u) m=1
C0p20 (LP2_6 0) mimcap area=(11.7u)*(4u) perim=2*(11.7u)+2*(4u) m=1
C0n20 (LN2_6 0) mimcap area=(11.7u)*(4u) perim=2*(11.7u)+2*(4u) m=1
C1p20 (LP2_6 0) mimcap area=(11.7u)*(4u) perim=2*(11.7u)+2*(4u) m=1
C1n20 (LN2_6 0) mimcap area=(11.7u)*(4u) perim=2*(11.7u)+2*(4u) m=1
C2p20 (LP2_6 0) mimcap area=(11.7u)*(4u) perim=2*(11.7u)+2*(4u) m=1
C2n20 (LN2_6 0) mimcap area=(11.7u)*(4u) perim=2*(11.7u)+2*(4u) m=1
C0p21 (LP2_7 0) mimcap area=(11.7u)*(4u) perim=2*(11.7u)+2*(4u) m=1
C0n21 (LN2_7 0) mimcap area=(11.7u)*(4u) perim=2*(11.7u)+2*(4u) m=1
C1p21 (LP2_7 0) mimcap area=(11.7u)*(4u) perim=2*(11.7u)+2*(4u) m=1
C1n21 (LN2_7 0) mimcap area=(11.7u)*(4u) perim=2*(11.7u)+2*(4u) m=1
C2p21 (LP2_7 0) mimcap area=(11.7u)*(4u) perim=2*(11.7u)+2*(4u) m=1
C2n21 (LN2_7 0) mimcap area=(11.7u)*(4u) perim=2*(11.7u)+2*(4u) m=1
C0p22 (LP2_8 0) mimcap area=(11.7u)*(4u) perim=2*(11.7u)+2*(4u) m=1
C0n22 (LN2_8 0) mimcap area=(11.7u)*(4u) perim=2*(11.7u)+2*(4u) m=1
C1p22 (LP2_8 0) mimcap area=(11.7u)*(4u) perim=2*(11.7u)+2*(4u) m=1
C1n22 (LN2_8 0) mimcap area=(11.7u)*(4u) perim=2*(11.7u)+2*(4u) m=1
C2p22 (LP2_8 0) mimcap area=(11.7u)*(4u) perim=2*(11.7u)+2*(4u) m=1
C2n22 (LN2_8 0) mimcap area=(11.7u)*(4u) perim=2*(11.7u)+2*(4u) m=1
C0p23 (LP2_9 0) mimcap area=(11.7u)*(4u) perim=2*(11.7u)+2*(4u) m=1
C0n23 (LN2_9 0) mimcap area=(11.7u)*(4u) perim=2*(11.7u)+2*(4u) m=1
C1p23 (LP2_9 0) mimcap area=(11.7u)*(4u) perim=2*(11.7u)+2*(4u) m=1
C1n23 (LN2_9 0) mimcap area=(11.7u)*(4u) perim=2*(11.7u)+2*(4u) m=1
C2p23 (LP2_9 0) mimcap area=(11.7u)*(4u) perim=2*(11.7u)+2*(4u) m=1
C2n23 (LN2_9 0) mimcap area=(11.7u)*(4u) perim=2*(11.7u)+2*(4u) m=1
C0p24 (LP3_4 0) mimcap area=(11.7u)*(4u) perim=2*(11.7u)+2*(4u) m=1
C0n24 (LN3_4 0) mimcap area=(11.7u)*(4u) perim=2*(11.7u)+2*(4u) m=1
C1p24 (LP3_4 0) mimcap area=(11.7u)*(4u) perim=2*(11.7u)+2*(4u) m=1
C1n24 (LN3_4 0) mimcap area=(11.7u)*(4u) perim=2*(11.7u)+2*(4u) m=1
C2p24 (LP3_4 0) mimcap area=(11.7u)*(4u) perim=2*(11.7u)+2*(4u) m=1
C2n24 (LN3_4 0) mimcap area=(11.7u)*(4u) perim=2*(11.7u)+2*(4u) m=1
C0p25 (LP3_5 0) mimcap area=(11.7u)*(4u) perim=2*(11.7u)+2*(4u) m=1
C0n25 (LN3_5 0) mimcap area=(11.7u)*(4u) perim=2*(11.7u)+2*(4u) m=1
C1p25 (LP3_5 0) mimcap area=(11.7u)*(4u) perim=2*(11.7u)+2*(4u) m=1
C1n25 (LN3_5 0) mimcap area=(11.7u)*(4u) perim=2*(11.7u)+2*(4u) m=1
C2p25 (LP3_5 0) mimcap area=(11.7u)*(4u) perim=2*(11.7u)+2*(4u) m=1
C2n25 (LN3_5 0) mimcap area=(11.7u)*(4u) perim=2*(11.7u)+2*(4u) m=1
C0p26 (LP3_6 0) mimcap area=(11.7u)*(4u) perim=2*(11.7u)+2*(4u) m=1
C0n26 (LN3_6 0) mimcap area=(11.7u)*(4u) perim=2*(11.7u)+2*(4u) m=1
C1p26 (LP3_6 0) mimcap area=(11.7u)*(4u) perim=2*(11.7u)+2*(4u) m=1
C1n26 (LN3_6 0) mimcap area=(11.7u)*(4u) perim=2*(11.7u)+2*(4u) m=1
C2p26 (LP3_6 0) mimcap area=(11.7u)*(4u) perim=2*(11.7u)+2*(4u) m=1
C2n26 (LN3_6 0) mimcap area=(11.7u)*(4u) perim=2*(11.7u)+2*(4u) m=1
C0p27 (LP3_7 0) mimcap area=(11.7u)*(4u) perim=2*(11.7u)+2*(4u) m=1
C0n27 (LN3_7 0) mimcap area=(11.7u)*(4u) perim=2*(11.7u)+2*(4u) m=1
C1p27 (LP3_7 0) mimcap area=(11.7u)*(4u) perim=2*(11.7u)+2*(4u) m=1
C1n27 (LN3_7 0) mimcap area=(11.7u)*(4u) perim=2*(11.7u)+2*(4u) m=1
C2p27 (LP3_7 0) mimcap area=(11.7u)*(4u) perim=2*(11.7u)+2*(4u) m=1
C2n27 (LN3_7 0) mimcap area=(11.7u)*(4u) perim=2*(11.7u)+2*(4u) m=1
C0p28 (LP3_8 0) mimcap area=(11.7u)*(4u) perim=2*(11.7u)+2*(4u) m=1
C0n28 (LN3_8 0) mimcap area=(11.7u)*(4u) perim=2*(11.7u)+2*(4u) m=1
C1p28 (LP3_8 0) mimcap area=(11.7u)*(4u) perim=2*(11.7u)+2*(4u) m=1
C1n28 (LN3_8 0) mimcap area=(11.7u)*(4u) perim=2*(11.7u)+2*(4u) m=1
C2p28 (LP3_8 0) mimcap area=(11.7u)*(4u) perim=2*(11.7u)+2*(4u) m=1
C2n28 (LN3_8 0) mimcap area=(11.7u)*(4u) perim=2*(11.7u)+2*(4u) m=1
C0p29 (LP3_9 0) mimcap area=(11.7u)*(4u) perim=2*(11.7u)+2*(4u) m=1
C0n29 (LN3_9 0) mimcap area=(11.7u)*(4u) perim=2*(11.7u)+2*(4u) m=1